
     RDKit          3D

 13 13  0  0  0  0  0  0  0  0999 V2000
    2.3810    0.7810    1.2332 O   0  0  0  0  0  0  0  0  0  0  0  0
    1.3077    0.4289    0.6773 C   0  0  0  0  0  0  0  0  0  0  0  0
    0.2746    1.4239    0.3685 C   0  0  0  0  0  0  0  0  0  0  0  0
   -0.8650    1.0537   -0.2211 C   0  0  0  0  0  0  0  0  0  0  0  0
   -1.1588   -0.3801   -0.6002 C   0  0  0  0  0  0  0  0  0  0  0  0
   -0.0565   -1.3559   -0.2561 C   0  0  0  0  0  0  0  0  0  0  0  0
    1.0810   -0.9793    0.3336 C   0  0  0  0  0  0  0  0  0  0  0  0
    0.4371    2.4647    0.6202 H   0  0  0  0  0  0  0  0  0  0  0  0
   -1.6120    1.8067   -0.4387 H   0  0  0  0  0  0  0  0  0  0  0  0
   -2.0873   -0.6992   -0.0821 H   0  0  0  0  0  0  0  0  0  0  0  0
   -1.3421   -0.4257   -1.6941 H   0  0  0  0  0  0  0  0  0  0  0  0
   -0.2001   -2.4011   -0.4999 H   0  0  0  0  0  0  0  0  0  0  0  0
    1.8404   -1.7177    0.5594 H   0  0  0  0  0  0  0  0  0  0  0  0
  1  2  2  0
  2  3  1  0
  3  4  2  0
  4  5  1  0
  5  6  1  0
  6  7  2  0
  7  2  1  0
  3  8  1  0
  4  9  1  0
  5 10  1  0
  5 11  1  0
  6 12  1  0
  7 13  1  0
M  END
$$$$
