
     RDKit          3D

 13 13  0  0  0  0  0  0  0  0999 V2000
    1.8643   -1.8517   -0.0192 O   0  0  0  0  0  0  0  0  0  0  0  0
    0.9986   -0.9373   -0.0025 C   0  0  0  0  0  0  0  0  0  0  0  0
    1.4154    0.4507    0.2503 C   0  0  0  0  0  0  0  0  0  0  0  0
    0.5141    1.4327    0.2720 C   0  0  0  0  0  0  0  0  0  0  0  0
   -0.9152    1.1588    0.0451 C   0  0  0  0  0  0  0  0  0  0  0  0
   -1.3617   -0.0801   -0.1904 C   0  0  0  0  0  0  0  0  0  0  0  0
   -0.4487   -1.2806   -0.2417 C   0  0  0  0  0  0  0  0  0  0  0  0
    2.4609    0.6769    0.4199 H   0  0  0  0  0  0  0  0  0  0  0  0
    0.8343    2.4497    0.4592 H   0  0  0  0  0  0  0  0  0  0  0  0
   -1.6173    1.9825    0.0704 H   0  0  0  0  0  0  0  0  0  0  0  0
   -2.4214   -0.2337   -0.3515 H   0  0  0  0  0  0  0  0  0  0  0  0
   -0.7778   -2.0100    0.5282 H   0  0  0  0  0  0  0  0  0  0  0  0
   -0.5456   -1.7578   -1.2397 H   0  0  0  0  0  0  0  0  0  0  0  0
  1  2  2  0
  2  3  1  0
  3  4  2  0
  4  5  1  0
  5  6  2  0
  6  7  1  0
  7  2  1  0
  3  8  1  0
  4  9  1  0
  5 10  1  0
  6 11  1  0
  7 12  1  0
  7 13  1  0
M  END
$$$$
