
     RDKit          3D

 13 13  0  0  0  0  0  0  0  0999 V2000
    2.7596    0.2188   -0.3697 O   0  0  0  0  0  0  0  0  0  0  0  0
    1.5156    0.1202   -0.2030 C   0  0  0  0  0  0  0  0  0  0  0  0
    0.6786    1.3242   -0.1569 C   0  0  0  0  0  0  0  0  0  0  0  0
   -0.6413    1.2230    0.0197 C   0  0  0  0  0  0  0  0  0  0  0  0
   -1.3431   -0.1065    0.1799 C   0  0  0  0  0  0  0  0  0  0  0  0
   -0.4267   -1.3077    0.1234 C   0  0  0  0  0  0  0  0  0  0  0  0
    0.8926   -1.1997   -0.0535 C   0  0  0  0  0  0  0  0  0  0  0  0
    1.1336    2.3009   -0.2668 H   0  0  0  0  0  0  0  0  0  0  0  0
   -1.2374    2.1264    0.0501 H   0  0  0  0  0  0  0  0  0  0  0  0
   -1.8719   -0.1113    1.1559 H   0  0  0  0  0  0  0  0  0  0  0  0
   -2.1028   -0.2038   -0.6237 H   0  0  0  0  0  0  0  0  0  0  0  0
   -0.8628   -2.2929    0.2313 H   0  0  0  0  0  0  0  0  0  0  0  0
    1.5060   -2.0916   -0.0867 H   0  0  0  0  0  0  0  0  0  0  0  0
  1  2  2  0
  2  3  1  0
  3  4  2  0
  4  5  1  0
  5  6  1  0
  6  7  2  0
  7  2  1  0
  3  8  1  0
  4  9  1  0
  5 10  1  0
  5 11  1  0
  6 12  1  0
  7 13  1  0
M  END
$$$$
