
     RDKit          3D

 13 13  0  0  0  0  0  0  0  0999 V2000
   -0.1021   -2.6249    0.0664 O   0  0  0  0  0  0  0  0  0  0  0  0
   -0.0138   -1.3690    0.0373 C   0  0  0  0  0  0  0  0  0  0  0  0
    1.3110   -0.7337    0.1095 C   0  0  0  0  0  0  0  0  0  0  0  0
    1.4253    0.5941    0.0801 C   0  0  0  0  0  0  0  0  0  0  0  0
    0.2370    1.4580   -0.0247 C   0  0  0  0  0  0  0  0  0  0  0  0
   -0.9969    0.9456   -0.0941 C   0  0  0  0  0  0  0  0  0  0  0  0
   -1.2666   -0.5390   -0.0709 C   0  0  0  0  0  0  0  0  0  0  0  0
    2.1996   -1.3480    0.1869 H   0  0  0  0  0  0  0  0  0  0  0  0
    2.4062    1.0488    0.1340 H   0  0  0  0  0  0  0  0  0  0  0  0
    0.3699    2.5322   -0.0456 H   0  0  0  0  0  0  0  0  0  0  0  0
   -1.8409    1.6196   -0.1702 H   0  0  0  0  0  0  0  0  0  0  0  0
   -1.9253   -0.7667    0.7936 H   0  0  0  0  0  0  0  0  0  0  0  0
   -1.8034   -0.8169   -1.0023 H   0  0  0  0  0  0  0  0  0  0  0  0
  1  2  2  0
  2  3  1  0
  3  4  2  0
  4  5  1  0
  5  6  2  0
  6  7  1  0
  7  2  1  0
  3  8  1  0
  4  9  1  0
  5 10  1  0
  6 11  1  0
  7 12  1  0
  7 13  1  0
M  END
$$$$
