
     RDKit          3D

 16 15  0  0  0  0  0  0  0  0999 V2000
    2.1527    0.0637    0.0209 C   0  0  0  0  0  0  0  0  0  0  0  0
    0.8989    0.0035   -0.8568 C   0  0  0  0  0  0  0  0  0  0  0  0
   -0.1359   -0.8811   -0.2936 N   0  0  0  0  0  0  0  0  0  0  0  0
   -0.9704   -0.2086    0.7136 C   0  0  0  0  0  0  0  0  0  0  0  0
   -2.1784    0.4433    0.0496 C   0  0  0  0  0  0  0  0  0  0  0  0
    2.9047    0.7282   -0.4543 H   0  0  0  0  0  0  0  0  0  0  0  0
    2.5965   -0.9485    0.1294 H   0  0  0  0  0  0  0  0  0  0  0  0
    1.9137    0.4669    1.0263 H   0  0  0  0  0  0  0  0  0  0  0  0
    1.1904   -0.3908   -1.8535 H   0  0  0  0  0  0  0  0  0  0  0  0
    0.5057    1.0312   -1.0178 H   0  0  0  0  0  0  0  0  0  0  0  0
    0.3163   -1.7207    0.1395 H   0  0  0  0  0  0  0  0  0  0  0  0
   -1.3446   -0.9603    1.4436 H   0  0  0  0  0  0  0  0  0  0  0  0
   -0.4001    0.5539    1.2879 H   0  0  0  0  0  0  0  0  0  0  0  0
   -2.8297    0.8984    0.8253 H   0  0  0  0  0  0  0  0  0  0  0  0
   -2.7642   -0.3186   -0.5072 H   0  0  0  0  0  0  0  0  0  0  0  0
   -1.8556    1.2395   -0.6530 H   0  0  0  0  0  0  0  0  0  0  0  0
  1  2  1  0
  2  3  1  0
  3  4  1  0
  4  5  1  0
  1  6  1  0
  1  7  1  0
  1  8  1  0
  2  9  1  0
  2 10  1  0
  3 11  1  0
  4 12  1  0
  4 13  1  0
  5 14  1  0
  5 15  1  0
  5 16  1  0
M  END
$$$$
