
     RDKit          3D

 13 13  0  0  0  0  0  0  0  0999 V2000
   -1.9598   -1.5233   -0.4176 O   0  0  0  0  0  0  0  0  0  0  0  0
   -0.8567   -0.7020   -0.1960 C   0  0  0  0  0  0  0  0  0  0  0  0
    0.4292   -1.1809   -0.4740 C   0  0  0  0  0  0  0  0  0  0  0  0
    1.5446   -0.3655   -0.2556 C   0  0  0  0  0  0  0  0  0  0  0  0
    1.3774    0.9310    0.2413 C   0  0  0  0  0  0  0  0  0  0  0  0
    0.0946    1.4130    0.5203 C   0  0  0  0  0  0  0  0  0  0  0  0
   -1.0219    0.5990    0.3025 C   0  0  0  0  0  0  0  0  0  0  0  0
   -2.9030   -1.2058   -0.2263 H   0  0  0  0  0  0  0  0  0  0  0  0
    0.5633   -2.1838   -0.8589 H   0  0  0  0  0  0  0  0  0  0  0  0
    2.5376   -0.7381   -0.4714 H   0  0  0  0  0  0  0  0  0  0  0  0
    2.2409    1.5614    0.4101 H   0  0  0  0  0  0  0  0  0  0  0  0
   -0.0342    2.4165    0.9049 H   0  0  0  0  0  0  0  0  0  0  0  0
   -2.0120    0.9786    0.5206 H   0  0  0  0  0  0  0  0  0  0  0  0
  1  2  1  0
  2  3  2  0
  3  4  1  0
  4  5  2  0
  5  6  1  0
  6  7  2  0
  7  2  1  0
  1  8  1  0
  3  9  1  0
  4 10  1  0
  5 11  1  0
  6 12  1  0
  7 13  1  0
M  END
$$$$
